!DISTRIBUTED GENERATORS DEFINITION  
New Generator.DG_STN_426006 Bus1=STN_426006 kw=6.52045 Model=1
New Generator.DG_STN_426007 Bus1=STN_426007 kw=19.5615 Model=1
New Generator.DG_STN_426010 Bus1=STN_426010 kw=6.52045 Model=1
New Generator.DG_STN_426011 Bus1=STN_426011 kw=6.52045 Model=1
New Generator.DG_STN_426012 Bus1=STN_426012 kw=6.52045 Model=1
New Generator.DG_STN_426014 Bus1=STN_426014 kw=6.52045 Model=1
New Generator.DG_STN_426015 Bus1=STN_426015 kw=6.52045 Model=1
New Generator.DG_STN_426016 Bus1=STN_426016 kw=6.52045 Model=1
New Generator.DG_STN_426017 Bus1=STN_426017 kw=19.5615 Model=1
New Generator.DG_STN_426019 Bus1=STN_426019 kw=6.52045 Model=1
New Generator.DG_STN_426020 Bus1=STN_426020 kw=6.52045 Model=1
New Generator.DG_STN_426021 Bus1=STN_426021 kw=6.52045 Model=1
New Generator.DG_STN_426022 Bus1=STN_426022 kw=6.52045 Model=1
New Generator.DG_STN_426024 Bus1=STN_426024 kw=6.52045 Model=1
New Generator.DG_STN_426025 Bus1=STN_426025 kw=6.52045 Model=1
New Generator.DG_STN_426026 Bus1=STN_426026 kw=6.52045 Model=1
New Generator.DG_STN_426028 Bus1=STN_426028 kw=6.52045 Model=1
New Generator.DG_STN_426030 Bus1=STN_426030 kw=6.52045 Model=1
New Generator.DG_STN_426034 Bus1=STN_426034 kw=6.52045 Model=1
New Generator.DG_STN_426035 Bus1=STN_426035 kw=6.52045 Model=1
New Generator.DG_STN_426036 Bus1=STN_426036 kw=6.52045 Model=1
New Generator.DG_STN_426037 Bus1=STN_426037 kw=6.52045 Model=1
New Generator.DG_STN_426038 Bus1=STN_426038 kw=6.52045 Model=1
New Generator.DG_STN_426040 Bus1=STN_426040 kw=6.52045 Model=1
New Generator.DG_STN_426041 Bus1=STN_426041 kw=6.52045 Model=1
New Generator.DG_STN_426042 Bus1=STN_426042 kw=6.52045 Model=1
New Generator.DG_STN_426043 Bus1=STN_426043 kw=6.52045 Model=1
New Generator.DG_STN_426044 Bus1=STN_426044 kw=19.5615 Model=1
New Generator.DG_STN_426048 Bus1=STN_426048 kw=6.52045 Model=1
New Generator.DG_STN_426049 Bus1=STN_426049 kw=6.52045 Model=1
New Generator.DG_STN_426050 Bus1=STN_426050 kw=19.5615 Model=1
New Generator.DG_STN_426052 Bus1=STN_426052 kw=6.52045 Model=1
New Generator.DG_STN_426053 Bus1=STN_426053 kw=6.52045 Model=1
New Generator.DG_STN_426054 Bus1=STN_426054 kw=6.52045 Model=1
New Generator.DG_STN_426056 Bus1=STN_426056 kw=6.52045 Model=1
New Generator.DG_STN_426057 Bus1=STN_426057 kw=6.52045 Model=1
New Generator.DG_STN_426058 Bus1=STN_426058 kw=6.52045 Model=1
New Generator.DG_STN_426059 Bus1=STN_426059 kw=6.52045 Model=1
New Generator.DG_STN_426060 Bus1=STN_426060 kw=19.5615 Model=1
New Generator.DG_STN_426061 Bus1=STN_426061 kw=6.52045 Model=1
New Generator.DG_STN_426064 Bus1=STN_426064 kw=6.52045 Model=1
New Generator.DG_STN_426067 Bus1=STN_426067 kw=6.52045 Model=1
New Generator.DG_STN_426071 Bus1=STN_426071 kw=6.52045 Model=1
New Generator.DG_STN_426072 Bus1=STN_426072 kw=6.52045 Model=1
New Generator.DG_STN_426074 Bus1=STN_426074 kw=6.52045 Model=1
New Generator.DG_STN_426075 Bus1=STN_426075 kw=6.52045 Model=1
New Generator.DG_STN_426076 Bus1=STN_426076 kw=6.52045 Model=1
New Generator.DG_STN_426077 Bus1=STN_426077 kw=6.52045 Model=1
New Generator.DG_STN_426078 Bus1=STN_426078 kw=19.5615 Model=1
New Generator.DG_STN_426079 Bus1=STN_426079 kw=6.52045 Model=1
New Generator.DG_STN_426080 Bus1=STN_426080 kw=6.52045 Model=1
New Generator.DG_STN_426081 Bus1=STN_426081 kw=6.52045 Model=1
New Generator.DG_STN_426082 Bus1=STN_426082 kw=6.52045 Model=1
New Generator.DG_STN_426083 Bus1=STN_426083 kw=6.52045 Model=1
New Generator.DG_STN_426084 Bus1=STN_426084 kw=6.52045 Model=1
New Generator.DG_STN_426085 Bus1=STN_426085 kw=6.52045 Model=1
New Generator.DG_STN_426086 Bus1=STN_426086 kw=6.52045 Model=1
New Generator.DG_STN_426087 Bus1=STN_426087 kw=6.52045 Model=1
New Generator.DG_STN_426088 Bus1=STN_426088 kw=6.52045 Model=1
New Generator.DG_STN_426089 Bus1=STN_426089 kw=19.5615 Model=1
New Generator.DG_STN_426090 Bus1=STN_426090 kw=6.52045 Model=1
New Generator.DG_STN_426092 Bus1=STN_426092 kw=6.52045 Model=1
New Generator.DG_STN_426093 Bus1=STN_426093 kw=6.52045 Model=1
New Generator.DG_STN_426094 Bus1=STN_426094 kw=6.52045 Model=1
New Generator.DG_STN_426096 Bus1=STN_426096 kw=6.52045 Model=1
New Generator.DG_STN_426101 Bus1=STN_426101 kw=6.52045 Model=1
New Generator.DG_STN_426104 Bus1=STN_426104 kw=6.52045 Model=1
New Generator.DG_STN_426105 Bus1=STN_426105 kw=6.52045 Model=1
New Generator.DG_STN_426107 Bus1=STN_426107 kw=6.52045 Model=1
New Generator.DG_STN_426108 Bus1=STN_426108 kw=19.5615 Model=1
New Generator.DG_STN_426110 Bus1=STN_426110 kw=6.52045 Model=1
New Generator.DG_STN_426111 Bus1=STN_426111 kw=6.52045 Model=1
New Generator.DG_STN_426112 Bus1=STN_426112 kw=6.52045 Model=1
New Generator.DG_STN_426113 Bus1=STN_426113 kw=6.52045 Model=1
New Generator.DG_STN_426114 Bus1=STN_426114 kw=6.52045 Model=1
New Generator.DG_STN_426116 Bus1=STN_426116 kw=6.52045 Model=1
New Generator.DG_STN_426117 Bus1=STN_426117 kw=6.52045 Model=1
New Generator.DG_STN_426118 Bus1=STN_426118 kw=19.5615 Model=1
New Generator.DG_STN_426119 Bus1=STN_426119 kw=6.52045 Model=1
New Generator.DG_STN_426120 Bus1=STN_426120 kw=19.5615 Model=1
New Generator.DG_STN_426121 Bus1=STN_426121 kw=19.5615 Model=1
New Generator.DG_STN_426122 Bus1=STN_426122 kw=6.52045 Model=1
New Generator.DG_STN_426123 Bus1=STN_426123 kw=6.52045 Model=1
New Generator.DG_STN_426124 Bus1=STN_426124 kw=6.52045 Model=1
New Generator.DG_STN_426125 Bus1=STN_426125 kw=6.52045 Model=1
New Generator.DG_STN_426127 Bus1=STN_426127 kw=6.52045 Model=1
New Generator.DG_STN_426128 Bus1=STN_426128 kw=6.52045 Model=1
New Generator.DG_STN_426132 Bus1=STN_426132 kw=6.52045 Model=1
New Generator.DG_STN_426133 Bus1=STN_426133 kw=6.52045 Model=1
New Generator.DG_STN_426135 Bus1=STN_426135 kw=6.52045 Model=1
New Generator.DG_STN_426137 Bus1=STN_426137 kw=6.52045 Model=1
New Generator.DG_STN_426138 Bus1=STN_426138 kw=6.52045 Model=1
New Generator.DG_STN_426209 Bus1=STN_426209 kw=19.5615 Model=1
New Generator.DG_STN_4264002 Bus1=STN_4264002 kw=6.52045 Model=1
New Generator.DG_STN_4264004 Bus1=STN_4264004 kw=6.52045 Model=1
New Generator.DG_STN_4264005 Bus1=STN_4264005 kw=6.52045 Model=1
New Generator.DG_STN_4264010 Bus1=STN_4264010 kw=6.52045 Model=1
New Generator.DG_STN_4264011 Bus1=STN_4264011 kw=6.52045 Model=1
New Generator.DG_STN_4264012 Bus1=STN_4264012 kw=6.52045 Model=1
New Generator.DG_STN_4264014 Bus1=STN_4264014 kw=6.52045 Model=1
New Generator.DG_STN_4264015 Bus1=STN_4264015 kw=6.52045 Model=1
New Generator.DG_STN_4264017 Bus1=STN_4264017 kw=6.52045 Model=1
New Generator.DG_STN_4264021 Bus1=STN_4264021 kw=6.52045 Model=1
New Generator.DG_STN_4264029 Bus1=STN_4264029 kw=6.52045 Model=1
New Generator.DG_STN_4264033 Bus1=STN_4264033 kw=6.52045 Model=1
New Generator.DG_STN_4264039 Bus1=STN_4264039 kw=6.52045 Model=1
New Generator.DG_STN_426408 Bus1=STN_426408 kw=6.52045 Model=1
New Generator.DG_STN_426415 Bus1=STN_426415 kw=6.52045 Model=1
New Generator.DG_STN_426416 Bus1=STN_426416 kw=6.52045 Model=1
New Generator.DG_STN_426417 Bus1=STN_426417 kw=6.52045 Model=1
New Generator.DG_STN_426418 Bus1=STN_426418 kw=6.52045 Model=1
New Generator.DG_STN_426419 Bus1=STN_426419 kw=6.52045 Model=1
New Generator.DG_STN_426421 Bus1=STN_426421 kw=6.52045 Model=1
New Generator.DG_STN_426422 Bus1=STN_426422 kw=6.52045 Model=1
New Generator.DG_STN_426423 Bus1=STN_426423 kw=6.52045 Model=1
New Generator.DG_STN_426424 Bus1=STN_426424 kw=6.52045 Model=1
New Generator.DG_STN_426425 Bus1=STN_426425 kw=6.52045 Model=1
New Generator.DG_STN_426426 Bus1=STN_426426 kw=6.52045 Model=1
New Generator.DG_STN_426427 Bus1=STN_426427 kw=6.52045 Model=1
New Generator.DG_STN_426428 Bus1=STN_426428 kw=6.52045 Model=1
New Generator.DG_STN_426429 Bus1=STN_426429 kw=6.52045 Model=1
New Generator.DG_STN_426430 Bus1=STN_426430 kw=6.52045 Model=1
New Generator.DG_STN_426431 Bus1=STN_426431 kw=19.5615 Model=1
New Generator.DG_STN_426432 Bus1=STN_426432 kw=6.52045 Model=1
New Generator.DG_STN_426433 Bus1=STN_426433 kw=6.52045 Model=1
New Generator.DG_STN_426437 Bus1=STN_426437 kw=6.52045 Model=1
New Generator.DG_STN_426438 Bus1=STN_426438 kw=6.52045 Model=1
New Generator.DG_STN_426439 Bus1=STN_426439 kw=6.52045 Model=1
New Generator.DG_STN_426440 Bus1=STN_426440 kw=6.52045 Model=1
New Generator.DG_STN_426441 Bus1=STN_426441 kw=6.52045 Model=1
New Generator.DG_STN_426442 Bus1=STN_426442 kw=19.5615 Model=1
New Generator.DG_STN_426443 Bus1=STN_426443 kw=6.52045 Model=1
New Generator.DG_STN_426444 Bus1=STN_426444 kw=6.52045 Model=1
New Generator.DG_STN_426445 Bus1=STN_426445 kw=6.52045 Model=1
New Generator.DG_STN_426446 Bus1=STN_426446 kw=6.52045 Model=1
New Generator.DG_STN_426447 Bus1=STN_426447 kw=19.5615 Model=1
New Generator.DG_STN_426448 Bus1=STN_426448 kw=6.52045 Model=1
New Generator.DG_STN_426449 Bus1=STN_426449 kw=6.52045 Model=1
New Generator.DG_STN_426450 Bus1=STN_426450 kw=6.52045 Model=1
New Generator.DG_STN_426452 Bus1=STN_426452 kw=6.52045 Model=1
New Generator.DG_STN_426453 Bus1=STN_426453 kw=6.52045 Model=1
New Generator.DG_STN_426454 Bus1=STN_426454 kw=19.5615 Model=1
New Generator.DG_STN_426455 Bus1=STN_426455 kw=6.52045 Model=1
New Generator.DG_STN_426456 Bus1=STN_426456 kw=19.5615 Model=1
New Generator.DG_STN_426457 Bus1=STN_426457 kw=6.52045 Model=1
New Generator.DG_STN_426458 Bus1=STN_426458 kw=6.52045 Model=1
New Generator.DG_STN_426459 Bus1=STN_426459 kw=6.52045 Model=1
New Generator.DG_STN_426460 Bus1=STN_426460 kw=6.52045 Model=1
New Generator.DG_STN_426461 Bus1=STN_426461 kw=6.52045 Model=1
New Generator.DG_STN_426462 Bus1=STN_426462 kw=6.52045 Model=1
New Generator.DG_STN_426463 Bus1=STN_426463 kw=6.52045 Model=1
New Generator.DG_STN_426464 Bus1=STN_426464 kw=6.52045 Model=1
New Generator.DG_STN_426465 Bus1=STN_426465 kw=6.52045 Model=1
New Generator.DG_STN_426466 Bus1=STN_426466 kw=6.52045 Model=1
New Generator.DG_STN_426467 Bus1=STN_426467 kw=6.52045 Model=1
New Generator.DG_STN_426468 Bus1=STN_426468 kw=6.52045 Model=1
New Generator.DG_STN_426469 Bus1=STN_426469 kw=6.52045 Model=1
New Generator.DG_STN_426470 Bus1=STN_426470 kw=19.5615 Model=1
New Generator.DG_STN_426471 Bus1=STN_426471 kw=6.52045 Model=1
New Generator.DG_STN_426472 Bus1=STN_426472 kw=6.52045 Model=1
New Generator.DG_STN_426473 Bus1=STN_426473 kw=6.52045 Model=1
New Generator.DG_STN_426474 Bus1=STN_426474 kw=6.52045 Model=1
New Generator.DG_STN_426475 Bus1=STN_426475 kw=6.52045 Model=1
New Generator.DG_STN_426476 Bus1=STN_426476 kw=6.52045 Model=1
New Generator.DG_STN_426477 Bus1=STN_426477 kw=6.52045 Model=1
New Generator.DG_STN_426478 Bus1=STN_426478 kw=6.52045 Model=1
New Generator.DG_STN_426479 Bus1=STN_426479 kw=19.5615 Model=1
New Generator.DG_STN_426480 Bus1=STN_426480 kw=6.52045 Model=1
New Generator.DG_STN_426481 Bus1=STN_426481 kw=6.52045 Model=1
New Generator.DG_STN_426482 Bus1=STN_426482 kw=6.52045 Model=1
New Generator.DG_STN_426483 Bus1=STN_426483 kw=6.52045 Model=1
New Generator.DG_STN_426484 Bus1=STN_426484 kw=6.52045 Model=1
New Generator.DG_STN_426485 Bus1=STN_426485 kw=6.52045 Model=1
New Generator.DG_STN_426486 Bus1=STN_426486 kw=19.5615 Model=1
New Generator.DG_STN_426487 Bus1=STN_426487 kw=6.52045 Model=1
New Generator.DG_STN_426488 Bus1=STN_426488 kw=6.52045 Model=1
New Generator.DG_STN_426489 Bus1=STN_426489 kw=6.52045 Model=1
New Generator.DG_STN_426490 Bus1=STN_426490 kw=6.52045 Model=1
New Generator.DG_STN_426491 Bus1=STN_426491 kw=6.52045 Model=1
New Generator.DG_STN_426492 Bus1=STN_426492 kw=6.52045 Model=1
New Generator.DG_STN_426493 Bus1=STN_426493 kw=6.52045 Model=1
New Generator.DG_STN_426494 Bus1=STN_426494 kw=6.52045 Model=1
New Generator.DG_STN_426495 Bus1=STN_426495 kw=6.52045 Model=1
New Generator.DG_STN_426496 Bus1=STN_426496 kw=6.52045 Model=1
New Generator.DG_STN_426497 Bus1=STN_426497 kw=6.52045 Model=1
New Generator.DG_STN_426498 Bus1=STN_426498 kw=6.52045 Model=1
New Generator.DG_STN_426499 Bus1=STN_426499 kw=6.52045 Model=1
New Generator.DG_STN_426500 Bus1=STN_426500 kw=6.52045 Model=1
New Generator.DG_STN_426501 Bus1=STN_426501 kw=6.52045 Model=1
New Generator.DG_STN_426502 Bus1=STN_426502 kw=6.52045 Model=1
New Generator.DG_STN_426503 Bus1=STN_426503 kw=6.52045 Model=1
New Generator.DG_STN_426504 Bus1=STN_426504 kw=6.52045 Model=1
New Generator.DG_STN_426505 Bus1=STN_426505 kw=6.52045 Model=1
New Generator.DG_STN_426506 Bus1=STN_426506 kw=6.52045 Model=1
New Generator.DG_STN_426507 Bus1=STN_426507 kw=6.52045 Model=1
New Generator.DG_STN_426508 Bus1=STN_426508 kw=6.52045 Model=1
New Generator.DG_STN_426509 Bus1=STN_426509 kw=6.52045 Model=1
New Generator.DG_STN_426510 Bus1=STN_426510 kw=6.52045 Model=1
New Generator.DG_STN_426511 Bus1=STN_426511 kw=19.5615 Model=1
New Generator.DG_STN_426512 Bus1=STN_426512 kw=6.52045 Model=1
New Generator.DG_STN_426513 Bus1=STN_426513 kw=6.52045 Model=1
New Generator.DG_STN_426514 Bus1=STN_426514 kw=6.52045 Model=1
New Generator.DG_STN_426515 Bus1=STN_426515 kw=6.52045 Model=1
New Generator.DG_STN_426516 Bus1=STN_426516 kw=19.5615 Model=1
New Generator.DG_STN_426517 Bus1=STN_426517 kw=6.52045 Model=1
New Generator.DG_STN_426518 Bus1=STN_426518 kw=6.52045 Model=1
New Generator.DG_STN_426519 Bus1=STN_426519 kw=6.52045 Model=1
New Generator.DG_STN_426520 Bus1=STN_426520 kw=6.52045 Model=1
New Generator.DG_STN_426521 Bus1=STN_426521 kw=19.5615 Model=1
New Generator.DG_STN_426522 Bus1=STN_426522 kw=6.52045 Model=1
New Generator.DG_STN_426523 Bus1=STN_426523 kw=6.52045 Model=1
New Generator.DG_STN_426541 Bus1=STN_426541 kw=19.5615 Model=1
New Generator.DG_STN_426546 Bus1=STN_426546 kw=6.52045 Model=1
New Generator.DG_STN_426547 Bus1=STN_426547 kw=6.52045 Model=1
New Generator.DG_STN_426548 Bus1=STN_426548 kw=6.52045 Model=1
New Generator.DG_STN_426549 Bus1=STN_426549 kw=6.52045 Model=1
New Generator.DG_STN_426560 Bus1=STN_426560 kw=19.5615 Model=1
New Generator.DG_STN_426561 Bus1=STN_426561 kw=6.52045 Model=1
New Generator.DG_STN_426562 Bus1=STN_426562 kw=6.52045 Model=1
New Generator.DG_STN_426563 Bus1=STN_426563 kw=6.52045 Model=1
New Generator.DG_STN_426564 Bus1=STN_426564 kw=6.52045 Model=1
New Generator.DG_STN_426565 Bus1=STN_426565 kw=6.52045 Model=1
New Generator.DG_STN_426566 Bus1=STN_426566 kw=6.52045 Model=1
New Generator.DG_STN_426567 Bus1=STN_426567 kw=6.52045 Model=1
New Generator.DG_STN_426568 Bus1=STN_426568 kw=6.52045 Model=1
New Generator.DG_STN_426569 Bus1=STN_426569 kw=6.52045 Model=1
New Generator.DG_STN_426570 Bus1=STN_426570 kw=6.52045 Model=1
New Generator.DG_STN_426571 Bus1=STN_426571 kw=6.52045 Model=1
New Generator.DG_STN_426572 Bus1=STN_426572 kw=6.52045 Model=1
New Generator.DG_STN_426573 Bus1=STN_426573 kw=6.52045 Model=1
New Generator.DG_STN_426574 Bus1=STN_426574 kw=6.52045 Model=1
New Generator.DG_STN_426577 Bus1=STN_426577 kw=6.52045 Model=1
New Generator.DG_STN_426579 Bus1=STN_426579 kw=6.52045 Model=1
New Generator.DG_STN_426582 Bus1=STN_426582 kw=6.52045 Model=1
New Generator.DG_STN_426590 Bus1=STN_426590 kw=6.52045 Model=1
New Generator.DG_STN_426593 Bus1=STN_426593 kw=6.52045 Model=1
New Generator.DG_STN_426594 Bus1=STN_426594 kw=19.5615 Model=1
New Generator.DG_STN_426610 Bus1=STN_426610 kw=6.52045 Model=1
New Generator.DG_STN_426611 Bus1=STN_426611 kw=19.5615 Model=1
New Generator.DG_STN_426612 Bus1=STN_426612 kw=6.52045 Model=1
New Generator.DG_STN_426613 Bus1=STN_426613 kw=6.52045 Model=1
New Generator.DG_STN_426614 Bus1=STN_426614 kw=6.52045 Model=1
New Generator.DG_STN_426615 Bus1=STN_426615 kw=6.52045 Model=1
New Generator.DG_STN_426616 Bus1=STN_426616 kw=6.52045 Model=1
New Generator.DG_STN_426617 Bus1=STN_426617 kw=6.52045 Model=1
New Generator.DG_STN_426618 Bus1=STN_426618 kw=6.52045 Model=1
New Generator.DG_STN_426619 Bus1=STN_426619 kw=6.52045 Model=1
New Generator.DG_STN_426620 Bus1=STN_426620 kw=6.52045 Model=1
New Generator.DG_STN_426621 Bus1=STN_426621 kw=19.5615 Model=1
New Generator.DG_STN_426622 Bus1=STN_426622 kw=6.52045 Model=1
New Generator.DG_STN_426623 Bus1=STN_426623 kw=6.52045 Model=1
New Generator.DG_STN_426624 Bus1=STN_426624 kw=6.52045 Model=1
New Generator.DG_STN_426625 Bus1=STN_426625 kw=6.52045 Model=1
New Generator.DG_STN_426626 Bus1=STN_426626 kw=6.52045 Model=1
New Generator.DG_STN_426627 Bus1=STN_426627 kw=6.52045 Model=1
New Generator.DG_STN_426628 Bus1=STN_426628 kw=6.52045 Model=1
New Generator.DG_STN_426629 Bus1=STN_426629 kw=6.52045 Model=1
New Generator.DG_STN_426630 Bus1=STN_426630 kw=6.52045 Model=1
New Generator.DG_STN_426632 Bus1=STN_426632 kw=6.52045 Model=1
New Generator.DG_STN_426633 Bus1=STN_426633 kw=6.52045 Model=1
New Generator.DG_STN_426634 Bus1=STN_426634 kw=6.52045 Model=1
New Generator.DG_STN_426635 Bus1=STN_426635 kw=6.52045 Model=1
New Generator.DG_STN_426636 Bus1=STN_426636 kw=19.5615 Model=1
New Generator.DG_STN_426637 Bus1=STN_426637 kw=6.52045 Model=1
New Generator.DG_STN_426644 Bus1=STN_426644 kw=19.5615 Model=1
New Generator.DG_STN_426650 Bus1=STN_426650 kw=6.52045 Model=1
New Generator.DG_STN_426651 Bus1=STN_426651 kw=6.52045 Model=1
New Generator.DG_STN_426652 Bus1=STN_426652 kw=19.5615 Model=1
New Generator.DG_STN_426654 Bus1=STN_426654 kw=6.52045 Model=1
New Generator.DG_STN_426655 Bus1=STN_426655 kw=6.52045 Model=1
New Generator.DG_STN_426656 Bus1=STN_426656 kw=19.5615 Model=1
New Generator.DG_STN_426657 Bus1=STN_426657 kw=19.5615 Model=1
New Generator.DG_STN_426660 Bus1=STN_426660 kw=19.5615 Model=1
New Generator.DG_STN_426661 Bus1=STN_426661 kw=19.5615 Model=1
New Generator.DG_STN_426662 Bus1=STN_426662 kw=6.52045 Model=1
New Generator.DG_STN_426664 Bus1=STN_426664 kw=6.52045 Model=1
New Generator.DG_STN_426665 Bus1=STN_426665 kw=6.52045 Model=1
New Generator.DG_STN_426666 Bus1=STN_426666 kw=6.52045 Model=1
New Generator.DG_STN_426671 Bus1=STN_426671 kw=6.52045 Model=1
New Generator.DG_STN_426673 Bus1=STN_426673 kw=6.52045 Model=1
New Generator.DG_STN_426674 Bus1=STN_426674 kw=6.52045 Model=1
New Generator.DG_STN_426675 Bus1=STN_426675 kw=6.52045 Model=1
New Generator.DG_STN_426676 Bus1=STN_426676 kw=6.52045 Model=1
New Generator.DG_STN_426680 Bus1=STN_426680 kw=6.52045 Model=1
New Generator.DG_STN_426681 Bus1=STN_426681 kw=6.52045 Model=1
New Generator.DG_STN_426683 Bus1=STN_426683 kw=6.52045 Model=1
New Generator.DG_STN_426684 Bus1=STN_426684 kw=6.52045 Model=1
New Generator.DG_STN_426685 Bus1=STN_426685 kw=6.52045 Model=1
New Generator.DG_STN_426692 Bus1=STN_426692 kw=6.52045 Model=1
New Generator.DG_STN_426695 Bus1=STN_426695 kw=6.52045 Model=1
New Generator.DG_STN_426696 Bus1=STN_426696 kw=6.52045 Model=1
New Generator.DG_STN_426698 Bus1=STN_426698 kw=6.52045 Model=1
New Generator.DG_STN_426701 Bus1=STN_426701 kw=6.52045 Model=1
New Generator.DG_STN_426702 Bus1=STN_426702 kw=19.5615 Model=1
New Generator.DG_STN_426703 Bus1=STN_426703 kw=6.52045 Model=1
New Generator.DG_STN_426704 Bus1=STN_426704 kw=6.52045 Model=1
New Generator.DG_STN_426705 Bus1=STN_426705 kw=6.52045 Model=1
New Generator.DG_STN_426707 Bus1=STN_426707 kw=6.52045 Model=1
New Generator.DG_STN_426709 Bus1=STN_426709 kw=6.52045 Model=1
New Generator.DG_STN_426710 Bus1=STN_426710 kw=6.52045 Model=1
New Generator.DG_STN_426715 Bus1=STN_426715 kw=6.52045 Model=1
New Generator.DG_STN_426720 Bus1=STN_426720 kw=6.52045 Model=1
New Generator.DG_STN_426721 Bus1=STN_426721 kw=6.52045 Model=1
New Generator.DG_STN_426725 Bus1=STN_426725 kw=6.52045 Model=1
New Generator.DG_STN_426727 Bus1=STN_426727 kw=19.5615 Model=1
New Generator.DG_STN_426728 Bus1=STN_426728 kw=6.52045 Model=1
New Generator.DG_STN_426730 Bus1=STN_426730 kw=6.52045 Model=1
New Generator.DG_STN_426733 Bus1=STN_426733 kw=6.52045 Model=1
New Generator.DG_STN_426734 Bus1=STN_426734 kw=6.52045 Model=1
New Generator.DG_STN_426737 Bus1=STN_426737 kw=6.52045 Model=1
New Generator.DG_STN_426739 Bus1=STN_426739 kw=6.52045 Model=1
New Generator.DG_STN_426741 Bus1=STN_426741 kw=6.52045 Model=1
New Generator.DG_STN_426743 Bus1=STN_426743 kw=6.52045 Model=1
New Generator.DG_STN_426745 Bus1=STN_426745 kw=6.52045 Model=1
New Generator.DG_STN_426747 Bus1=STN_426747 kw=6.52045 Model=1
New Generator.DG_STN_426749 Bus1=STN_426749 kw=6.52045 Model=1
New Generator.DG_STN_426752 Bus1=STN_426752 kw=6.52045 Model=1
New Generator.DG_STN_426754 Bus1=STN_426754 kw=6.52045 Model=1
New Generator.DG_STN_426755 Bus1=STN_426755 kw=6.52045 Model=1
New Generator.DG_STN_426756 Bus1=STN_426756 kw=6.52045 Model=1
New Generator.DG_STN_426758 Bus1=STN_426758 kw=6.52045 Model=1
New Generator.DG_STN_426759 Bus1=STN_426759 kw=6.52045 Model=1
New Generator.DG_STN_426760 Bus1=STN_426760 kw=6.52045 Model=1
New Generator.DG_STN_426761 Bus1=STN_426761 kw=6.52045 Model=1
New Generator.DG_STN_426763 Bus1=STN_426763 kw=6.52045 Model=1
New Generator.DG_STN_426765 Bus1=STN_426765 kw=6.52045 Model=1
New Generator.DG_STN_426766 Bus1=STN_426766 kw=6.52045 Model=1
New Generator.DG_STN_426769 Bus1=STN_426769 kw=6.52045 Model=1
New Generator.DG_STN_426770 Bus1=STN_426770 kw=6.52045 Model=1
New Generator.DG_STN_426771 Bus1=STN_426771 kw=6.52045 Model=1
New Generator.DG_STN_426772 Bus1=STN_426772 kw=6.52045 Model=1
New Generator.DG_STN_426773 Bus1=STN_426773 kw=6.52045 Model=1
New Generator.DG_STN_426774 Bus1=STN_426774 kw=6.52045 Model=1
New Generator.DG_STN_426775 Bus1=STN_426775 kw=6.52045 Model=1
New Generator.DG_STN_426776 Bus1=STN_426776 kw=6.52045 Model=1
New Generator.DG_STN_426777 Bus1=STN_426777 kw=6.52045 Model=1
New Generator.DG_STN_426778 Bus1=STN_426778 kw=6.52045 Model=1
New Generator.DG_STN_426779 Bus1=STN_426779 kw=6.52045 Model=1
New Generator.DG_STN_426780 Bus1=STN_426780 kw=6.52045 Model=1
New Generator.DG_STN_426781 Bus1=STN_426781 kw=6.52045 Model=1
New Generator.DG_STN_426782 Bus1=STN_426782 kw=6.52045 Model=1
New Generator.DG_STN_426783 Bus1=STN_426783 kw=6.52045 Model=1
New Generator.DG_STN_426784 Bus1=STN_426784 kw=6.52045 Model=1
New Generator.DG_STN_426785 Bus1=STN_426785 kw=6.52045 Model=1
New Generator.DG_STN_426786 Bus1=STN_426786 kw=6.52045 Model=1
New Generator.DG_STN_426787 Bus1=STN_426787 kw=6.52045 Model=1
New Generator.DG_STN_426790 Bus1=STN_426790 kw=6.52045 Model=1
New Generator.DG_STN_426791 Bus1=STN_426791 kw=6.52045 Model=1
New Generator.DG_STN_426792 Bus1=STN_426792 kw=6.52045 Model=1
New Generator.DG_STN_426797 Bus1=STN_426797 kw=6.52045 Model=1
New Generator.DG_STN_426798 Bus1=STN_426798 kw=6.52045 Model=1
New Generator.DG_STN_426800 Bus1=STN_426800 kw=6.52045 Model=1
New Generator.DG_STN_426802 Bus1=STN_426802 kw=6.52045 Model=1
New Generator.DG_STN_426803 Bus1=STN_426803 kw=6.52045 Model=1
New Generator.DG_STN_426807 Bus1=STN_426807 kw=6.52045 Model=1
New Generator.DG_STN_426808 Bus1=STN_426808 kw=6.52045 Model=1
New Generator.DG_STN_426810 Bus1=STN_426810 kw=6.52045 Model=1
New Generator.DG_STN_426813 Bus1=STN_426813 kw=6.52045 Model=1
New Generator.DG_STN_426816 Bus1=STN_426816 kw=19.5615 Model=1
New Generator.DG_STN_426817 Bus1=STN_426817 kw=6.52045 Model=1
New Generator.DG_STN_426819 Bus1=STN_426819 kw=6.52045 Model=1
New Generator.DG_STN_426821 Bus1=STN_426821 kw=6.52045 Model=1
New Generator.DG_STN_426822 Bus1=STN_426822 kw=6.52045 Model=1
New Generator.DG_STN_426824 Bus1=STN_426824 kw=6.52045 Model=1
New Generator.DG_STN_426828 Bus1=STN_426828 kw=6.52045 Model=1
New Generator.DG_STN_426830 Bus1=STN_426830 kw=6.52045 Model=1
New Generator.DG_STN_426832 Bus1=STN_426832 kw=6.52045 Model=1
New Generator.DG_STN_426837 Bus1=STN_426837 kw=6.52045 Model=1
New Generator.DG_STN_426838 Bus1=STN_426838 kw=6.52045 Model=1
New Generator.DG_STN_426839 Bus1=STN_426839 kw=6.52045 Model=1
New Generator.DG_STN_426841 Bus1=STN_426841 kw=6.52045 Model=1
New Generator.DG_STN_426847 Bus1=STN_426847 kw=6.52045 Model=1
New Generator.DG_STN_426848 Bus1=STN_426848 kw=6.52045 Model=1
New Generator.DG_STN_426849 Bus1=STN_426849 kw=6.52045 Model=1
New Generator.DG_STN_426851 Bus1=STN_426851 kw=6.52045 Model=1
New Generator.DG_STN_426852 Bus1=STN_426852 kw=6.52045 Model=1
New Generator.DG_STN_426853 Bus1=STN_426853 kw=6.52045 Model=1
New Generator.DG_STN_426855 Bus1=STN_426855 kw=6.52045 Model=1
New Generator.DG_STN_426856 Bus1=STN_426856 kw=6.52045 Model=1
New Generator.DG_STN_426857 Bus1=STN_426857 kw=6.52045 Model=1
New Generator.DG_STN_426859 Bus1=STN_426859 kw=6.52045 Model=1
New Generator.DG_STN_426861 Bus1=STN_426861 kw=6.52045 Model=1
New Generator.DG_STN_426862 Bus1=STN_426862 kw=6.52045 Model=1
New Generator.DG_STN_426863 Bus1=STN_426863 kw=19.5615 Model=1
New Generator.DG_STN_426864 Bus1=STN_426864 kw=6.52045 Model=1
New Generator.DG_STN_426866 Bus1=STN_426866 kw=6.52045 Model=1
New Generator.DG_STN_426868 Bus1=STN_426868 kw=6.52045 Model=1
New Generator.DG_STN_426870 Bus1=STN_426870 kw=6.52045 Model=1
New Generator.DG_STN_426872 Bus1=STN_426872 kw=6.52045 Model=1
