new line.501043803 bus1=VENTRY_426.1.2.3 bus2=502091595.1.2.3 linecode=DUMMY__VENTRY_426_3ph phases=3 length=0.700003657599883 units=m enabled=true
new line.501043805 bus1=502091595.1.2.3 bus2=502091596.1.2.3 linecode=DUMMY__VENTRY_426_3ph phases=3 length=0.700003657599883 units=m enabled=true
new line.501043807 bus1=502091596.1.2.3 bus2=502091597.1.2.3 linecode=DUMMY__VENTRY_426_3ph phases=3 length=0.700003657599883 units=m enabled=true
new line.400181350 bus1=502091597.1.2.3 bus2=503299935.1.2.3 linecode=185_XLP__3Ph_UG__VENTRY_426_3ph phases=3 length=22.999719584009 units=m enabled=true
new line.503299938 bus1=503299935.1.2.3 bus2=501285410.1.2.3 linecode=185_XLP__3Ph_UG__VENTRY_426_3ph phases=3 length=94.9988417600371 units=m enabled=true
new line.501285411 bus1=501285410.1.2.3 bus2=501285406.1.2.3 linecode=25__CU___3Ph_OH__VENTRY_426_3ph phases=3 length=93.9988539520367 units=m enabled=true
new line.501675506 bus1=501285406.1.2.3 bus2=503299949_switch1.1.2.3 linecode=DUMMY__VENTRY_426_3ph phases=3 length=0.700003657599883 units=m enabled=true
new line.501285407 bus1=503299949.1.2.3 bus2=400181370.1.2.3 linecode=25__CU___3Ph_OH__VENTRY_426_3ph phases=3 length=278.996598432109 units=m enabled=true
new line.400181372 bus1=400181370.1.3 bus2=STN_426025.1.3 linecode=DUMMY__VENTRY_426_2ph phases=2 length=0.700003657599883 units=m enabled=true
new line.502743672 bus1=400181370.1.2.3 bus2=502743670.1.2.3 linecode=25__CU___3Ph_OH__VENTRY_426_3ph phases=3 length=149.998171200059 units=m enabled=true
new line.502743671 bus1=502743670.1.2.3 bus2=400182062.1.2.3 linecode=25__CU___3Ph_OH__VENTRY_426_3ph phases=3 length=707.991368064276 units=m enabled=true
new line.501334532 bus1=400182062.1.2.3 bus2=503238626.1.2.3 linecode=25__CU___3Ph_OH__VENTRY_426_3ph phases=3 length=214.997378720084 units=m enabled=true
new line.503238627 bus1=503238626.1.2.3 bus2=501334535.1.2.3 linecode=25__CU___3Ph_OH__VENTRY_426_3ph phases=3 length=68.9991587520269 units=m enabled=true
new line.501334536 bus1=501334535.1.2.3 bus2=501334533.1.2.3 linecode=25__CU___3Ph_OH__VENTRY_426_3ph phases=3 length=53.9993416320211 units=m enabled=true
new line.501334534 bus1=501334533.1.2.3 bus2=2266644.1.2.3 linecode=25__CU___3Ph_OH__VENTRY_426_3ph phases=3 length=301.996318016118 units=m enabled=true
new line.506250179 bus1=501334533.2.3 bus2=506250180.2.3 linecode=DUMMY__VENTRY_426_2ph phases=2 length=0.700003657599883 units=m enabled=true
new line.2266645 bus1=2266644.1.2.3 bus2=2266646_switch1.1.2.3 linecode=DUMMY__VENTRY_426_3ph phases=3 length=0.700003657599883 units=m enabled=true
new line.501334542 bus1=506250180.2.3 bus2=STN_426741.2.3 linecode=UNDEF_1Ph_OH__VENTRY_426_2ph phases=2 length=24.9996952000098 units=m enabled=true
new line.2266648 bus1=2266646.1.2.3 bus2=2266649.1.2.3 linecode=25__CU___3Ph_OH__VENTRY_426_3ph phases=3 length=93.9988539520367 units=m enabled=true
new line.2266810 bus1=2266649.1.2.3 bus2=2264230.1.2.3 linecode=25__CU___3Ph_OH__VENTRY_426_3ph phases=3 length=75.9990734080296 units=m enabled=true
new line.400080355 bus1=2266649.1.2.3 bus2=601393655.1.2.3 linecode=UNDEF_3Ph_OH__VENTRY_426_3ph phases=3 length=28.338657173163 units=m enabled=true
new line.400181926 bus1=2266649.1.2.3 bus2=400181928.1.2.3 linecode=25__CU___3Ph_OH__VENTRY_426_3ph phases=3 length=54.9993294400215 units=m enabled=true
new line.2264229 bus1=2264230.1.2.3 bus2=2264228_switch1.1.2.3 linecode=DUMMY__VENTRY_426_3ph phases=3 length=0.700003657599883 units=m enabled=true
new line.400080360 bus1=601393655.1.2.3 bus2=601393656.1.2.3 linecode=DUMMY__VENTRY_426_3ph phases=3 length=0.700003657599883 units=m enabled=true
new line.400181934 bus1=400181928.1.3 bus2=STN_426684.1.3 linecode=DUMMY__VENTRY_426_2ph phases=2 length=0.700003657599883 units=m enabled=true
new line.502743657 bus1=400181928.1.2.3 bus2=F2_502743657.1.2.3 linecode=92__SCA__3Ph_OH__VENTRY_426_3ph phases=3 length=59.9992684800234 units=m enabled=true
new line.2264227 bus1=2264228.1.2.3 bus2=2264017.1.2.3 linecode=25__CU___3Ph_OH__VENTRY_426_3ph phases=3 length=90.9988905280355 units=m enabled=true
new line.612834325 bus1=601393656.1.2.3 bus2=STN_426118.1.2.3 linecode=25__CU___3Ph_OH__VENTRY_426_3ph phases=3 length=89.2828970629473 units=m enabled=true
new line.2264021 bus1=2264017.1.2.3 bus2=501320942.1.2.3 linecode=25__CU___3Ph_OH__VENTRY_426_3ph phases=3 length=163.998000512064 units=m enabled=true
new line.400181395 bus1=2264017.1.2.3 bus2=400181394.1.2.3 linecode=25__CU___3Ph_OH__VENTRY_426_3ph phases=3 length=45.9994391680179 units=m enabled=true
new line.400181400 bus1=2264017.1.3 bus2=400181401.1.3 linecode=DUMMY__VENTRY_426_2ph phases=2 length=0.700003657599883 units=m enabled=true
new line.501320943 bus1=501320942.1.2.3 bus2=2264022.1.2.3 linecode=25__CU___3Ph_OH__VENTRY_426_3ph phases=3 length=52.9993538240207 units=m enabled=true
new line.501320945 bus1=501320942.1.3 bus2=STN_426730.1.3 linecode=DUMMY__VENTRY_426_2ph phases=2 length=0.700003657599883 units=m enabled=true
new line.506203032 bus1=400181394.1.2.3 bus2=506377797_switch1.1.2.3 linecode=DUMMY__VENTRY_426_3ph phases=3 length=0.700003657599883 units=m enabled=true
new line.2264679 bus1=400181401.1.3 bus2=STN_426650.1.3 linecode=25__SCA__1Ph_OH__VENTRY_426_2ph phases=2 length=89.9989027200351 units=m enabled=true
new line.2264024 bus1=2264022.1.2.3 bus2=2264025.1.2.3 linecode=50__SCA__3Ph_OH__VENTRY_426_3ph phases=3 length=38.9995245120152 units=m enabled=true
new line.506250175 bus1=2264022.1.2.3 bus2=506250176.1.2.3 linecode=DUMMY__VENTRY_426_3ph phases=3 length=0.700003657599883 units=m enabled=true
new line.506377795 bus1=506377797.1.2.3 bus2=506377794.1.2.3 linecode=25__CU___3Ph_OH__VENTRY_426_3ph phases=3 length=122.998500384048 units=m enabled=true
new line.2264027 bus1=2264025.1.2.3 bus2=502979110.1.2.3 linecode=50__SCA__3Ph_OH__VENTRY_426_3ph phases=3 length=23.9997073920094 units=m enabled=true
new line.501320939 bus1=2264025.1.3 bus2=STN_426651.1.3 linecode=DUMMY__VENTRY_426_2ph phases=2 length=0.700003657599883 units=m enabled=true
new line.505933429 bus1=506250176.1.2.3 bus2=505933425.1.2.3 linecode=185_XLP__3Ph_UG__VENTRY_426_3ph phases=3 length=225.997244608088 units=m enabled=true
new line.506377798 bus1=506377794.1.2 bus2=STN_4264009.1.2 linecode=DUMMY__VENTRY_426_2ph phases=2 length=0.700003657599883 units=m enabled=true
new line.506377800 bus1=506377794.1.2.3 bus2=506377801_recloser1.1.2.3 linecode=DUMMY__VENTRY_426_3ph phases=3 length=0.700003657599883 units=m enabled=true
new line.506283106 bus1=502979110.1.2.3 bus2=506283105.1.2.3 linecode=185_XLP__3Ph_UG__VENTRY_426_3ph phases=3 length=112.998622304044 units=m enabled=true
new line.505933426 bus1=505933425.1.2.3 bus2=STN_426120.1.2.3 linecode=25__CU___3Ph_OH__VENTRY_426_3ph phases=3 length=11.9998536960047 units=m enabled=true
new line.506283109 bus1=506283105.1.2.3 bus2=2264031.1.2.3 linecode=50__SCA__3Ph_OH__VENTRY_426_3ph phases=3 length=20.9997439680082 units=m enabled=true
new line.506283112 bus1=506283105.1.2.3 bus2=506283110.1.2.3 linecode=50__SCA__3Ph_OH__VENTRY_426_3ph phases=3 length=142.998256544056 units=m enabled=true
new line.2264232 bus1=2264031.1.2.3 bus2=2264233.1.2.3 linecode=DUMMY__VENTRY_426_3ph phases=3 length=0.700003657599883 units=m enabled=true
new line.2264240 bus1=506283110.1.2.3 bus2=506283114.1.2.3 linecode=DUMMY__VENTRY_426_3ph phases=3 length=0.700003657599883 units=m enabled=true
new line.506283111 bus1=506283110.1.2.3 bus2=2264040.1.2.3 linecode=50__SCA__3Ph_OH__VENTRY_426_3ph phases=3 length=191.997659136075 units=m enabled=true
new line.2264234 bus1=2264233.1.2.3 bus2=STN_426644.1.2.3 linecode=50__SCA__3Ph_OH__VENTRY_426_3ph phases=3 length=53.9993416320211 units=m enabled=true
new line.2264036 bus1=506283114.1.2.3 bus2=2264034.1.2.3 linecode=50__SCA__3Ph_OH__VENTRY_426_3ph phases=3 length=55.9993172480218 units=m enabled=true
new line.2264042 bus1=2264040.1.2.3 bus2=400164535.1.2.3 linecode=50__SCA__3Ph_OH__VENTRY_426_3ph phases=3 length=141.998268736055 units=m enabled=true
new line.400154805 bus1=2264040.1.2 bus2=400154806.1.2 linecode=DUMMY__VENTRY_426_2ph phases=2 length=0.700003657599883 units=m enabled=true
new line.2264242 bus1=2264034.1.2.3 bus2=STN_426652.1.2.3 linecode=25__CU___3Ph_OH__VENTRY_426_3ph phases=3 length=198.997573792078 units=m enabled=true
new line.400164534 bus1=400164535.1.2.3 bus2=2264043_switch1.1.2.3 linecode=DUMMY__VENTRY_426_3ph phases=3 length=0.700003657599883 units=m enabled=true
new line.400154801 bus1=400154806.1.2 bus2=STN_426119.1.2 linecode=25__SCA__1Ph_OH__VENTRY_426_2ph phases=2 length=32.9995976640129 units=m enabled=true
new line.501639712 bus1=400154806.1.2 bus2=STN_426787.1.2 linecode=25__CU___1Ph_OH__VENTRY_426_2ph phases=2 length=23.9997073920094 units=m enabled=true
new line.2264047 bus1=2264043.1.2.3 bus2=2264048.1.2.3 linecode=25__CU___3Ph_OH__VENTRY_426_3ph phases=3 length=191.997659136075 units=m enabled=true
new line.2264050 bus1=2264048.1.2.3 bus2=2264051.1.2.3 linecode=25__CU___3Ph_OH__VENTRY_426_3ph phases=3 length=268.996720352105 units=m enabled=true
new line.2264257 bus1=2264048.1.2.3 bus2=2264258.1.2.3 linecode=DUMMY__VENTRY_426_3ph phases=3 length=0.700003657599883 units=m enabled=true
new line.2264053 bus1=2264051.1.2.3 bus2=501589717.1.2.3 linecode=25__CU___3Ph_OH__VENTRY_426_3ph phases=3 length=713.991294912279 units=m enabled=true
new line.2264262 bus1=2264051.1.2.3 bus2=2264263_switch1.1.2.3 linecode=DUMMY__VENTRY_426_3ph phases=3 length=0.700003657599883 units=m enabled=true
new line.2264259 bus1=2264258.1.2.3 bus2=504938427.1.2.3 linecode=25__CU___3Ph_OH__VENTRY_426_3ph phases=3 length=133.998366272052 units=m enabled=true
new line.501589718 bus1=501589717.1.2.3 bus2=501231766.1.2.3 linecode=25__CU___3Ph_OH__VENTRY_426_3ph phases=3 length=98.9987929920386 units=m enabled=true
new line.2264264 bus1=2264263.1.2.3 bus2=2264268.1.2.3 linecode=25__AAAC_3Ph_OH__VENTRY_426_3ph phases=3 length=206.997476256081 units=m enabled=true
new line.501885019 bus1=504938427.2.3 bus2=504938435.2.3 linecode=DUMMY__VENTRY_426_2ph phases=2 length=0.700003657599883 units=m enabled=true
new line.504938430 bus1=504938427.1.2.3 bus2=STN_426594.1.2.3 linecode=25__CU___3Ph_OH__VENTRY_426_3ph phases=3 length=318.996110752124 units=m enabled=true
new line.501231767 bus1=501231766.1.2.3 bus2=502412438.1.2.3 linecode=25__CU___3Ph_OH__VENTRY_426_3ph phases=3 length=72.9991099840285 units=m enabled=true
new line.506250141 bus1=501231766.1.2 bus2=506250142.1.2 linecode=DUMMY__VENTRY_426_2ph phases=2 length=0.700003657599883 units=m enabled=true
new line.2264270 bus1=2264268.1.2.3 bus2=2264271.1.2.3 linecode=25__AAAC_3Ph_OH__VENTRY_426_3ph phases=3 length=131.998390656052 units=m enabled=true
new line.506250143 bus1=2264268.2.3 bus2=506250144.2.3 linecode=DUMMY__VENTRY_426_2ph phases=2 length=0.700003657599883 units=m enabled=true
new line.504938428 bus1=504938435.2.3 bus2=STN_426006.2.3 linecode=25__CU___1Ph_OH__VENTRY_426_2ph phases=2 length=137.998317504054 units=m enabled=true
new line.501231768 bus1=502412438.1.2.3 bus2=502412442_switch1.1.2.3 linecode=DUMMY__VENTRY_426_3ph phases=3 length=0.700003657599883 units=m enabled=true
new line.503166761 bus1=506250142.1.2 bus2=503166768.1.2 linecode=50__SCA__1Ph_OH__VENTRY_426_2ph phases=2 length=62.9992319040246 units=m enabled=true
new line.2264273 bus1=2264271.1.2.3 bus2=2264274.1.2.3 linecode=25__AAAC_3Ph_OH__VENTRY_426_3ph phases=3 length=204.99750064008 units=m enabled=true
new line.400080165 bus1=2264271.1.2 bus2=STN_426610.1.2 linecode=DUMMY__VENTRY_426_2ph phases=2 length=0.700003657599883 units=m enabled=true
new line.400080160 bus1=506250144.2.3 bus2=501850663.2.3 linecode=25__CU___1Ph_OH__VENTRY_426_2ph phases=2 length=225.997244608088 units=m enabled=true
new line.502412439 bus1=502412442.1.2.3 bus2=502412440.1.2.3 linecode=25__CU___3Ph_OH__VENTRY_426_3ph phases=3 length=66.9991831360261 units=m enabled=true
new line.503166769 bus1=503166768.1.2 bus2=STN_426832.1.2 linecode=50__SCA__1Ph_OH__VENTRY_426_2ph phases=2 length=77.9990490240304 units=m enabled=true
new line.2264276 bus1=2264274.1.2.3 bus2=2264277.1.2.3 linecode=25__AAAC_3Ph_OH__VENTRY_426_3ph phases=3 length=314.996159520123 units=m enabled=true
new line.2264685 bus1=2264274.1.2 bus2=2264686.1.2 linecode=DUMMY__VENTRY_426_2ph phases=2 length=0.700003657599883 units=m enabled=true
new line.501850664 bus1=501850663.2.3 bus2=STN_426128.2.3 linecode=25__CU___1Ph_OH__VENTRY_426_2ph phases=2 length=52.9993538240207 units=m enabled=true
new line.501850666 bus1=501850663.2.3 bus2=STN_426798.2.3 linecode=25__CU___1Ph_OH__VENTRY_426_2ph phases=2 length=174.997866400068 units=m enabled=true
new line.502412441 bus1=502412440.1.2.3 bus2=504923076.1.2.3 linecode=25__CU___3Ph_OH__VENTRY_426_3ph phases=3 length=60.9992562880238 units=m enabled=true
new line.503533332 bus1=502412440.1.3 bus2=503533333.1.3 linecode=DUMMY__VENTRY_426_2ph phases=2 length=0.700003657599883 units=m enabled=true
new line.2264279 bus1=2264277.1.2.3 bus2=2264280.1.2.3 linecode=25__AAAC_3Ph_OH__VENTRY_426_3ph phases=3 length=213.997390912083 units=m enabled=true
new line.2264690 bus1=2264277.2.3 bus2=2264691.2.3 linecode=DUMMY__VENTRY_426_2ph phases=2 length=0.700003657599883 units=m enabled=true
new line.2264687 bus1=2264686.1.2 bus2=STN_426022.1.2 linecode=25__CU___1Ph_OH__VENTRY_426_2ph phases=2 length=48.9994025920191 units=m enabled=true
new line.504923077 bus1=504923076.1.2.3 bus2=2264054.1.2.3 linecode=25__CU___3Ph_OH__VENTRY_426_3ph phases=3 length=91.9988783360359 units=m enabled=true
new line.506250139 bus1=504923076.1.2 bus2=506250140.1.2 linecode=DUMMY__VENTRY_426_2ph phases=2 length=0.700003657599883 units=m enabled=true
new line.503533329 bus1=503533333.1.3 bus2=STN_426830.1.3 linecode=25__CU___1Ph_OH__VENTRY_426_2ph phases=2 length=71.9991221760281 units=m enabled=true
new line.2264282 bus1=2264280.1.2.3 bus2=2264283.1.2.3 linecode=25__AAAC_3Ph_OH__VENTRY_426_3ph phases=3 length=158.998061472062 units=m enabled=true
new line.2264698 bus1=2264280.1.2.3 bus2=2264699.1.2.3 linecode=DUMMY__VENTRY_426_3ph phases=3 length=0.700003657599883 units=m enabled=true
new line.2264692 bus1=2264691.2.3 bus2=STN_426570.2.3 linecode=25__CU___1Ph_OH__VENTRY_426_2ph phases=2 length=146.998207776057 units=m enabled=true
new line.2264056 bus1=2264054.1.2.3 bus2=2264057.1.2.3 linecode=25__CU___3Ph_OH__VENTRY_426_3ph phases=3 length=457.994416064179 units=m enabled=true
new line.2264312 bus1=2264054.1.2.3 bus2=502412434.1.2.3 linecode=DUMMY__VENTRY_426_3ph phases=3 length=0.700003657599883 units=m enabled=true
new line.504923079 bus1=506250140.1.2 bus2=STN_426819.1.2 linecode=25__SCA__1Ph_OH__VENTRY_426_2ph phases=2 length=29.9996342400117 units=m enabled=true
new line.503533355 bus1=STN_426830.1.3 bus2=503533380.1.3 linecode=25__CU___1Ph_OH__VENTRY_426_2ph phases=2 length=161.998024896063 units=m enabled=true
new line.400181590 bus1=2264283.1.3 bus2=400181591.1.3 linecode=DUMMY__VENTRY_426_2ph phases=2 length=0.700003657599883 units=m enabled=true
new line.2264700 bus1=2264699.1.2.3 bus2=STN_426611.1.2.3 linecode=UNDEF_3Ph_OH__VENTRY_426_3ph phases=3 length=97.9988051840382 units=m enabled=true
new line.2264059 bus1=2264057.1.2.3 bus2=2264066.1.2.3 linecode=25__CU___3Ph_OH__VENTRY_426_3ph phases=3 length=441.994611136172 units=m enabled=true
new line.2264320 bus1=2264057.1.3 bus2=2264321.1.3 linecode=DUMMY__VENTRY_426_2ph phases=2 length=0.700003657599883 units=m enabled=true
new line.502412433 bus1=502412434.1.2.3 bus2=STN_426621.1.2.3 linecode=25__CU___3Ph_OH__VENTRY_426_3ph phases=3 length=89.9989027200351 units=m enabled=true
new line.503533381 bus1=503533380.1.3 bus2=STN_426838.1.3 linecode=25__CU___1Ph_OH__VENTRY_426_2ph phases=2 length=318.996110752124 units=m enabled=true
new line.2264287 bus1=400181591.1.3 bus2=2264288.1.3 linecode=25__AAAC_1Ph_OH__VENTRY_426_2ph phases=2 length=51.9993660160203 units=m enabled=true
new line.2264068 bus1=2264066.1.2.3 bus2=400187630.1.2.3 linecode=25__CU___3Ph_OH__VENTRY_426_3ph phases=3 length=498.993916192195 units=m enabled=true
new line.2264331 bus1=2264066.2.3 bus2=2264332.2.3 linecode=DUMMY__VENTRY_426_2ph phases=2 length=0.700003657599883 units=m enabled=true
new line.2264322 bus1=2264321.1.3 bus2=STN_426622.1.3 linecode=25__SCA__1Ph_OH__VENTRY_426_2ph phases=2 length=117.998561344046 units=m enabled=true
new line.2264290 bus1=2264288.1.3 bus2=400181580.1.3 linecode=25__AAAC_1Ph_OH__VENTRY_426_2ph phases=2 length=48.9994025920191 units=m enabled=true
new line.2264708 bus1=2264288.1.3 bus2=STN_426036.1.3 linecode=25__CU___1Ph_OH__VENTRY_426_2ph phases=2 length=385.995293888151 units=m enabled=true
new line.400187631 bus1=400187630.1.2.3 bus2=2264073.1.2.3 linecode=25__CU___3Ph_OH__VENTRY_426_3ph phases=3 length=68.9991587520269 units=m enabled=true
new line.400187635 bus1=400187630.1.3 bus2=400187636.1.3 linecode=DUMMY__VENTRY_426_2ph phases=2 length=0.700003657599883 units=m enabled=true
new line.2264333 bus1=2264332.2.3 bus2=STN_426041.2.3 linecode=25__CU___1Ph_OH__VENTRY_426_2ph phases=2 length=272.996671584107 units=m enabled=true
new line.400181581 bus1=400181580.1.3 bus2=STN_426612.1.3 linecode=25__AAAC_1Ph_OH__VENTRY_426_2ph phases=2 length=258.996842272101 units=m enabled=true
new line.400181583 bus1=400181580.1.3 bus2=STN_4264004.1.3 linecode=25__CU___1Ph_OH__VENTRY_426_2ph phases=2 length=79.9990246400312 units=m enabled=true
new line.2264075 bus1=2264073.1.2.3 bus2=501972044.1.2.3 linecode=25__CU___3Ph_OH__VENTRY_426_3ph phases=3 length=94.9988417600371 units=m enabled=true
new line.400123023 bus1=2264073.1.2 bus2=400123024.1.2 linecode=DUMMY__VENTRY_426_2ph phases=2 length=0.700003657599883 units=m enabled=true
new line.400187633 bus1=400187636.1.3 bus2=STN_426675.1.3 linecode=UNDEF_1Ph_OH__VENTRY_426_2ph phases=2 length=42.9994757440168 units=m enabled=true
new line.2264293 bus1=STN_426612.1.3 bus2=2264298.1.3 linecode=25__AAAC_1Ph_OH__VENTRY_426_2ph phases=2 length=286.996500896112 units=m enabled=true
new line.506227116 bus1=STN_4264004.1.3 bus2=STN_426685.1.3 linecode=25__CU___1Ph_OH__VENTRY_426_2ph phases=2 length=76.99906121603 units=m enabled=true
new line.501972045 bus1=501972044.1.2.3 bus2=2264076.1.2.3 linecode=25__CU___3Ph_OH__VENTRY_426_3ph phases=3 length=102.99874422404 units=m enabled=true
new line.2264338 bus1=400123024.1.2 bus2=504923073.1.2 linecode=25__SCA__1Ph_OH__VENTRY_426_2ph phases=2 length=154.99811024006 units=m enabled=true
new line.2264300 bus1=2264298.1.3 bus2=STN_426124.1.3 linecode=25__AAAC_1Ph_OH__VENTRY_426_2ph phases=2 length=194.997622560076 units=m enabled=true
new line.2264711 bus1=2264298.1.3 bus2=400187450.1.3 linecode=25__AAAC_1Ph_OH__VENTRY_426_2ph phases=2 length=195.997610368076 units=m enabled=true
new line.2265186 bus1=2264298.1.3 bus2=505832260.1.3 linecode=25__SCA__1Ph_OH__VENTRY_426_2ph phases=2 length=44.9994513600176 units=m enabled=true
new line.2264078 bus1=2264076.1.2.3 bus2=400182045.1.2.3 linecode=25__CU___3Ph_OH__VENTRY_426_3ph phases=3 length=81.999000256032 units=m enabled=true
new line.2265852 bus1=2264076.1.3 bus2=STN_426629.1.3 linecode=DUMMY__VENTRY_426_2ph phases=2 length=0.700003657599883 units=m enabled=true
new line.504923074 bus1=504923073.1.2 bus2=STN_426623.1.2 linecode=25__SCA__1Ph_OH__VENTRY_426_2ph phases=2 length=239.997073920094 units=m enabled=true
new line.400080477 bus1=STN_426124.1.3 bus2=2264301.1.3 linecode=25__AAAC_1Ph_OH__VENTRY_426_2ph phases=2 length=342.995818144134 units=m enabled=true
new line.400187452 bus1=400187450.1.3 bus2=400187453.1.3 linecode=DUMMY__VENTRY_426_2ph phases=2 length=0.700003657599883 units=m enabled=true
new line.505832263 bus1=505832260.1.3 bus2=505832264_switch1.1.3 linecode=DUMMY__VENTRY_426_2ph phases=2 length=0.700003657599883 units=m enabled=true
new line.400182046 bus1=400182045.1.2.3 bus2=2264079.1.2.3 linecode=25__CU___3Ph_OH__VENTRY_426_3ph phases=3 length=111.998634496044 units=m enabled=true
new line.2264347 bus1=STN_426623.1.2 bus2=2264348.1.2 linecode=25__SCA__1Ph_OH__VENTRY_426_2ph phases=2 length=203.99751283208 units=m enabled=true
new line.2264303 bus1=2264301.1.3 bus2=STN_426619.1.3 linecode=25__AAAC_1Ph_OH__VENTRY_426_2ph phases=2 length=107.998683264042 units=m enabled=true
new line.503267634 bus1=2264301.1.3 bus2=503267635_switch1.1.3 linecode=DUMMY__VENTRY_426_2ph phases=2 length=0.700003657599883 units=m enabled=true
new line.400187451 bus1=400187453.1.3 bus2=STN_426613.1.3 linecode=25__AAAC_1Ph_OH__VENTRY_426_2ph phases=2 length=186.997720096073 units=m enabled=true
new line.505832261 bus1=505832264.1.3 bus2=505845910.1.3 linecode=25__SCA__1Ph_OH__VENTRY_426_2ph phases=2 length=208.997451872081 units=m enabled=true
new line.2264081 bus1=2264079.1.2.3 bus2=2264082.1.2.3 linecode=25__CU___3Ph_OH__VENTRY_426_3ph phases=3 length=420.994867168164 units=m enabled=true
new line.2264381 bus1=2264079.2.3 bus2=2264382.2.3 linecode=DUMMY__VENTRY_426_2ph phases=2 length=0.700003657599883 units=m enabled=true
new line.2264350 bus1=2264348.1.2 bus2=STN_426010.1.2 linecode=25__SCA__1Ph_OH__VENTRY_426_2ph phases=2 length=82.1830080101437 units=m enabled=true
new line.2264306 bus1=STN_426619.1.3 bus2=STN_4264010.1.3 linecode=25__AAAC_1Ph_OH__VENTRY_426_2ph phases=2 length=67.9991709440265 units=m enabled=true
new line.2264755 bus1=503267635.1.3 bus2=501650206.1.3 linecode=25__CU___1Ph_OH__VENTRY_426_2ph phases=2 length=356.995647456139 units=m enabled=true
new line.505641477 bus1=503267635.1.3 bus2=STN_426870.1.3 linecode=25__CU___1Ph_OH__VENTRY_426_2ph phases=2 length=50.9993782080199 units=m enabled=true
new line.2264719 bus1=STN_426613.1.3 bus2=2264720.1.3 linecode=25__AAAC_1Ph_OH__VENTRY_426_2ph phases=2 length=531.993513856208 units=m enabled=true
new line.505845911 bus1=505845910.1.3 bus2=STN_426618.1.3 linecode=25__SCA__1Ph_OH__VENTRY_426_2ph phases=2 length=304.996281440119 units=m enabled=true
new line.2264084 bus1=2264082.1.2.3 bus2=2264085.1.2.3 linecode=25__CU___3Ph_OH__VENTRY_426_3ph phases=3 length=135.998341888053 units=m enabled=true
new line.2264399 bus1=2264082.2.3 bus2=2264400.2.3 linecode=DUMMY__VENTRY_426_2ph phases=2 length=0.700003657599883 units=m enabled=true
new line.2264383 bus1=2264382.2.3 bus2=2264387.2.3 linecode=25__SCA__1Ph_OH__VENTRY_426_2ph phases=2 length=324.996037600127 units=m enabled=true
new line.504923070 bus1=2264382.2.3 bus2=STN_426860.2.3 linecode=50__SCA__1Ph_OH__VENTRY_426_2ph phases=2 length=48.9994025920191 units=m enabled=true
new line.611262394 bus1=STN_426010.1.2 bus2=STN_426624.1.2 linecode=25__SCA__1Ph_OH__VENTRY_426_2ph phases=2 length=231.71718218505 units=m enabled=true
new line.506455690 bus1=STN_4264010.1.3 bus2=STN_426448.1.3 linecode=25__AAAC_1Ph_OH__VENTRY_426_2ph phases=2 length=39.9705258409432 units=m enabled=true
new line.501650207 bus1=501650206.1.3 bus2=2264759.1.3 linecode=25__CU___1Ph_OH__VENTRY_426_2ph phases=2 length=65.9991953280258 units=m enabled=true
new line.501650209 bus1=501650206.1.3 bus2=STN_426769.1.3 linecode=25__CU___1Ph_OH__VENTRY_426_2ph phases=2 length=242.997037344095 units=m enabled=true
new line.2264722 bus1=2264720.1.3 bus2=STN_426038.1.3 linecode=25__AAAC_1Ph_OH__VENTRY_426_2ph phases=2 length=105.998707648041 units=m enabled=true
new line.2264087 bus1=2264085.1.2.3 bus2=400187436.1.2.3 linecode=25__CU___3Ph_OH__VENTRY_426_3ph phases=3 length=195.997610368076 units=m enabled=true
new line.2264407 bus1=2264085.2.3 bus2=2264408.2.3 linecode=DUMMY__VENTRY_426_2ph phases=2 length=0.700003657599883 units=m enabled=true
new line.2264401 bus1=2264400.2.3 bus2=STN_426083.2.3 linecode=25__CU___1Ph_OH__VENTRY_426_2ph phases=2 length=102.99874422404 units=m enabled=true
new line.2264389 bus1=2264387.2.3 bus2=STN_426630.2.3 linecode=25__SCA__1Ph_OH__VENTRY_426_2ph phases=2 length=100.998768608039 units=m enabled=true
new line.2264782 bus1=2264387.2.3 bus2=STN_426075.2.3 linecode=25__CU___1Ph_OH__VENTRY_426_2ph phases=2 length=176.997842016069 units=m enabled=true
new line.2264353 bus1=STN_426624.1.2 bus2=501268804.1.2 linecode=25__SCA__1Ph_OH__VENTRY_426_2ph phases=2 length=115.998585728045 units=m enabled=true
new line.612801406 bus1=STN_426448.1.3 bus2=601383033.1.3 linecode=25__CU___1Ph_OH__VENTRY_426_2ph phases=2 length=48.0724143816827 units=m enabled=true
new line.2264761 bus1=2264759.1.3 bus2=STN_4264012.1.3 linecode=25__CU___1Ph_OH__VENTRY_426_2ph phases=2 length=84.9989636800332 units=m enabled=true
new line.2265217 bus1=2264759.1.3 bus2=STN_426012.1.3 linecode=25__CU___1Ph_OH__VENTRY_426_2ph phases=2 length=227.997220224089 units=m enabled=true
new line.2264725 bus1=STN_426038.1.3 bus2=2264726.1.3 linecode=25__AAAC_1Ph_OH__VENTRY_426_2ph phases=2 length=100.998768608039 units=m enabled=true
new line.504923094 bus1=STN_426038.1.3 bus2=STN_426011.1.3 linecode=25__CU___1Ph_OH__VENTRY_426_2ph phases=2 length=157.998073664062 units=m enabled=true
new line.501706126 bus1=400187436.1.2.3 bus2=501706127_switch1.1.2.3 linecode=DUMMY__VENTRY_426_3ph phases=3 length=0.700003657599883 units=m enabled=true
new line.2264409 bus1=2264408.2.3 bus2=501921188.2.3 linecode=25__CU___1Ph_OH__VENTRY_426_2ph phases=2 length=64.9992075200254 units=m enabled=true
new line.2264404 bus1=STN_426083.2.3 bus2=STN_426568.2.3 linecode=25__CU___1Ph_OH__VENTRY_426_2ph phases=2 length=270.996695968106 units=m enabled=true
new line.2264392 bus1=STN_426630.2.3 bus2=2264394.2.3 linecode=25__SCA__1Ph_OH__VENTRY_426_2ph phases=2 length=283.996537472111 units=m enabled=true
new line.501268805 bus1=501268804.1.2 bus2=STN_4264011.1.2 linecode=25__SCA__1Ph_OH__VENTRY_426_2ph phases=2 length=208.997451872081 units=m enabled=true
new line.501268807 bus1=501268804.1.2 bus2=STN_426720.1.2 linecode=25__CU___1Ph_OH__VENTRY_426_2ph phases=2 length=80.9990124480316 units=m enabled=true
new line.612801415 bus1=400080466.1.3 bus2=601383033.1.3 linecode=25__CU___1Ph_OH__VENTRY_426_2ph phases=2 length=48.9153997147072 units=m enabled=true
new line.506710812 bus1=STN_4264012.1.3 bus2=2264762.1.3 linecode=25__CU___1Ph_OH__VENTRY_426_2ph phases=2 length=65.9991953280258 units=m enabled=true
new line.2264728 bus1=2264726.1.3 bus2=2264729.1.3 linecode=25__AAAC_1Ph_OH__VENTRY_426_2ph phases=2 length=251.996927616098 units=m enabled=true
new line.2265193 bus1=2264726.1.3 bus2=STN_426579.1.3 linecode=25__AAAC_1Ph_OH__VENTRY_426_2ph phases=2 length=197.997585984077 units=m enabled=true
new line.400187437 bus1=501706127.1.2.3 bus2=501706119.1.2.3 linecode=25__CU___3Ph_OH__VENTRY_426_3ph phases=3 length=80.9990124480316 units=m enabled=true
new line.501921189 bus1=501921188.2.3 bus2=STN_426662.2.3 linecode=50__SCA__1Ph_OH__VENTRY_426_2ph phases=2 length=53.9993416320211 units=m enabled=true
new line.2264396 bus1=2264394.2.3 bus2=STN_426654.2.3 linecode=25__SCA__1Ph_OH__VENTRY_426_2ph phases=2 length=76.99906121603 units=m enabled=true
new line.2264785 bus1=2264394.2.3 bus2=STN_426569.2.3 linecode=25__CU___1Ph_OH__VENTRY_426_2ph phases=2 length=84.9989636800332 units=m enabled=true
new line.506719706 bus1=STN_4264011.1.2 bus2=STN_426625.1.2 linecode=25__SCA__1Ph_OH__VENTRY_426_2ph phases=2 length=304.996281440119 units=m enabled=true
new line.400080467 bus1=400080466.1.3 bus2=STN_426620.1.3 linecode=25__AAAC_1Ph_OH__VENTRY_426_2ph phases=2 length=73.9990977920289 units=m enabled=true
new line.400080469 bus1=400080466.1.3 bus2=STN_426110.1.3 linecode=UNDEF_1Ph_OH__VENTRY_426_2ph phases=2 length=75.9990734080296 units=m enabled=true
new line.501706059 bus1=2264762.1.3 bus2=STN_426572.1.3 linecode=25__CU___1Ph_OH__VENTRY_426_2ph phases=2 length=65.9991953280258 units=m enabled=true
new line.2264731 bus1=2264729.1.3 bus2=400187455.1.3 linecode=25__AAAC_1Ph_OH__VENTRY_426_2ph phases=2 length=211.997415296083 units=m enabled=true
new line.2265202 bus1=2264729.1.3 bus2=STN_426615.1.3 linecode=25__AAAC_1Ph_OH__VENTRY_426_2ph phases=2 length=143.998244352056 units=m enabled=true
new line.2265196 bus1=STN_426579.1.3 bus2=2265197.1.3 linecode=25__AAAC_1Ph_OH__VENTRY_426_2ph phases=2 length=202.997525024079 units=m enabled=true
new line.501706120 bus1=501706119.1.2.3 bus2=400080496.1.2.3 linecode=50__SCA__3Ph_OH__VENTRY_426_3ph phases=3 length=42.9994757440168 units=m enabled=true
new line.2264360 bus1=STN_426625.1.2 bus2=2264364.1.2 linecode=25__SCA__1Ph_OH__VENTRY_426_2ph phases=2 length=109.998658880043 units=m enabled=true
new line.501706062 bus1=STN_426572.1.3 bus2=STN_426701.1.3 linecode=25__CU___1Ph_OH__VENTRY_426_2ph phases=2 length=227.997220224089 units=m enabled=true
new line.400187459 bus1=400187455.1.3 bus2=400187460.1.3 linecode=DUMMY__VENTRY_426_2ph phases=2 length=0.700003657599883 units=m enabled=true
new line.2265199 bus1=2265197.1.3 bus2=STN_426614.1.3 linecode=25__AAAC_1Ph_OH__VENTRY_426_2ph phases=2 length=112.998622304044 units=m enabled=true
new line.2265526 bus1=2265197.1.3 bus2=501873937.1.3 linecode=25__CU___1Ph_OH__VENTRY_426_2ph phases=2 length=222.997281184087 units=m enabled=true
new line.400080497 bus1=400080496.1.2.3 bus2=504159893.1.2.3 linecode=25__CU___3Ph_OH__VENTRY_426_3ph phases=3 length=49.9993904000195 units=m enabled=true
new line.501631448 bus1=400080496.1.2 bus2=501631449.1.2 linecode=DUMMY__VENTRY_426_2ph phases=2 length=0.700003657599883 units=m enabled=true
new line.2264366 bus1=2264364.1.2 bus2=STN_426626.1.2 linecode=25__SCA__1Ph_OH__VENTRY_426_2ph phases=2 length=326.996013216128 units=m enabled=true
new line.2264767 bus1=2264364.1.2 bus2=STN_426054.1.2 linecode=25__CU___1Ph_OH__VENTRY_426_2ph phases=2 length=136.998329696053 units=m enabled=true
new line.400182056 bus1=STN_426701.1.3 bus2=STN_426703.1.3 linecode=25__CU___1Ph_OH__VENTRY_426_2ph phases=2 length=156.998085856061 units=m enabled=true
new line.400187456 bus1=400187460.1.3 bus2=2264732.1.3 linecode=25__AAAC_1Ph_OH__VENTRY_426_2ph phases=2 length=91.9988783360359 units=m enabled=true